
# This example dumps EtaN diagnostics as snapshots daily
 &DIAGNOSTICS_LIST
  fields(1,1)  = 'ETAN    ',
   levels(1,1) = 1.,
   fileName(1) = 'diagSurf',
  frequency(1) = -86400.,
 &

 &DIAG_STATIS_PARMS
 &
