# Packages
 &PACKAGES
  useEXF         = .TRUE.,
  useMNC         = .TRUE.,
  useCAL         = .TRUE.,
  useGMRedi      = .TRUE.,
  useDiagnostics = .TRUE.,
  useSlr_corr    = .TRUE.,
 &
